 &GCHEM_PARM01
  useCFC=.TRUE.,
  nsubtime=1,
 &
