# *********************
# ECCO control variables
# *********************
 &CTRL_NML
  ctrlUseGen=.TRUE.,
 &
#
# *********************
# names for ctrl_pack/unpack
# *********************
 &CTRL_PACKNAMES
 &
#
# *********************
# names for CTRL_GENARR, CTRL_GENTIM
# *********************
 &CTRL_NML_GENARR
##  xx_gentim2d_glosum(1)=.F.,
##  xx_gentim2d_cumsum(1)=.F.,
  xx_gentim2d_period(1)=864000,
 &

