 &GCHEM_PARM01
  useDIC=.TRUE.,
  nsubtime=1,
 &
