#
#
# *********************
# ECCO controlvariables
# *********************
 &CTRL_NML
 xx_hfluxm_file      = 'xx_hfluxm',
 &end
#
# *********************
# names for ctrl_pack/unpack
# *********************
 &CTRL_PACKNAMES
 ctrlname = 'ecco_ctrl',
 costname = 'ecco_cost',
 &end

