#
#
# *********************
# ECCO controlvariables
# *********************
 &CTRL_NML
 &
#
# *********************
# names for ctrl_pack/unpack
# *********************
 &CTRL_PACKNAMES
 &
#
# *********************
# names for CTRL_GENARR, CTRL_GENTIM
# *********************
 &CTRL_NML_GENARR
 xx_genarr2d_file(1)   = 'xx_qnetm',
 xx_genarr2d_weight(1) = 'ones_64b.bin',
 &
