&PACKAGES
 useDiagnostics = .TRUE.,
 useMNC        = .FALSE.,
/