# Packages
 &PACKAGES
 useDiagnostics = .TRUE., 
 useShelfIce=.true.,
 useIcefront=.true.,
 &
