
#
# ***************
# Open boundaries
# ***************
 &KPP_PARM01
 KPPwriteState=.FALSE.,
# minKPPhbl=10.,
 /
