# SEAICE parameters
 &SEAICE_PARM01
#      SEAICE_deltaTdyn   = 43200.
      SEAICE_initialHEFF = 1.0
      SEAICEwriteState   = .TRUE.
# LSR solver parameters used with SEAICE_ALLOW_DYNAMICS
      npseudo           = 1
      LSR_ERROR         = 1e-20
# asynchronous stepping for uice, vice
#      SEAICE_deltaTdyn  = 43200.
 &
 &SEAICE_PARM02
 mult_smrarea = 0.,
 smrareadatfile = 'ICECONC_daily92to03_360x160',
 wsmrarea0 = 0.5,
 wmean_smrarea = 0.5,
 smrarea_errfile = ' ',
 &
