
#
# ***************
# Packages
# ***************
 &PACKAGES
 useKPP	      = .TRUE.,
 useGMRedi    = .TRUE.,
 useSeaice    = .TRUE.,
 useGrdchk    = .FALSE.,
 useECCO      = .TRUE.,
 /
