# SEAICE parameters
 &SEAICE_PARM01
      SEAICE_initialHEFF = 1.0
      SEAICEwriteState  = .TRUE.
 &
