#
# ********
# Packages
# ********
 &PACKAGES
 useGMRedi    = .TRUE.,
 useKPP       = .TRUE.,
 useSEAICE    = .TRUE.,
 useECCO      = .TRUE.,
 useGrdchk    = .TRUE.,
 useDiagnostics = .TRUE.,
 useMNC       = .TRUE.,
 &
