# Packages
 &PACKAGES
#useMNC=.TRUE.,
 useShelfIce=.TRUE.,
 useGrdchk=.TRUE.,
 &
