#
# ********************************
# Off-line optimization parameters
# ********************************
 &OPTIM
 optimcycle=0,
 numiter=1,
 nfunc=10,
 fmin=3.0,
 iprint=10,
 nupdate=4,
 &
