# Packages
 &PACKAGES
#useGMRedi=.TRUE.,
 useEXF   =.TRUE.,
 useCAL   =.TRUE.,
 useSEAICE=.TRUE.,
 useGGL90 =.TRUE.,
 useDiagnostics=.TRUE.,
#useMNC = .TRUE.,
 &
