# Example "eedata" file
# nTx - No. threads per process in X
# nTy - No. threads per process in Y
 &EEPARMS
 nTx = 1,
 nTy = 1,
 &
