# This set-up makes is supposed to immitate salt. That is, PTRACER(:,:,:,1) 
# should look exactly like S(:,:,:).
 &PTRACERS_PARM01
 PTRACERS_numInUse=1,
 PTRACERS_advScheme=2,
 PTRACERS_diffKh=1.E3,
 PTRACERS_diffKr=3.E-5,
 PTRACERS_initialFile=' ',
 PTRACERS_ref=1., 19*0.,
 tauTr1ClimRelax= 31104000.,
 &
