#
#
# *********************
# ECCO controlvariables
# *********************
 &CTRL_NML
 &
#
# *********************
# names for ctrl_pack/unpack
# *********************
 &CTRL_PACKNAMES
 &
#
# *********************
# names for CTRL_GENARR, CTRL_GENTIM
# *********************
 &CTRL_NML_GENARR
 &

