# ******************
# ECCO cost function
# ******************
 &COST_NML
 &
