# Packages
 &PACKAGES
 usePTRACERS=.TRUE.,
 useDiagnostics=.TRUE.,
 useMNC=.TRUE.,
 &
