# Packages
 &PACKAGES
 usePTRACERS=.TRUE.,
 useDIAGNOSTICS=.TRUE.,
 useMNC=.TRUE.,
 &
