# Packages
 &PACKAGES
  useKPP     = .FALSE.,
  useMNC     = .TRUE.,
  useDiagnostics=.TRUE.,
 &
