# Packages
 &PACKAGES
 useGMRedi=.TRUE.,
#useMNC=.TRUE.,
 &
  
