# Packages
 &PACKAGES
 usePP81=.TRUE.,
 &
