# Packages
 &PACKAGES
 usePP81=.TRUE.,
 useDiagnostics=.TRUE.,
 useMNC=.TRUE.,
 &
