# Packages
 &PACKAGES
 useGMRedi = .TRUE.,
 useEXF    = .FALSE.,
 useTHSICE = .FALSE.,
#useDiagnostics=.TRUE.,
#useMNC=.TRUE.,
 useGrdchk=.TRUE.,
 &
