# Packages
 &PACKAGES
 useOPPS=.TRUE.,
 useDiagnostics=.TRUE.,
 useMNC=.TRUE.,
 &
