# Example "data.mnc" file
# Lines beginning "#" are comments
 &MNC_01
 mnc_echo_gvtypes=.TRUE.,
 mnc_use_outdir=.TRUE.,
 mnc_outdir_date=.TRUE.,
 mnc_outdir_str='test_mnc_',
 mnc_use_for_mon=.TRUE.,
 &
# Note: Some systems use & as the
# namelist terminator. Other systems
# use a / character (as shown here).
