# Packages (lines beginning "#" are comments)
 &PACKAGES
 useMNC=.TRUE.,
 useDiagnostics=.TRUE.,
 useGrdchk      = .TRUE.,
 &
