# Packages
 &PACKAGES
 useGMRedi=.TRUE.,
 usePTRACERS=.TRUE.,
 useGCHEM=.TRUE.,
#useMNC=.TRUE.,
 &
  
