 &GCHEM_PARM01
  useCFC=.TRUE.,
  nsubtime=1,
  gchem_iceFile  = 'fice.bin',
  gchem_windFile = 'tren_speed.bin',
 &
