 &CTRL_NML
 doPackDiag = .FALSE.,
 &

 &CTRL_PACKNAMES
 &

 &CTRL_NML_GENARR
 xx_genarr2d_file(1)   = 'xx_b_glen',
 xx_genarr2d_weight(1) = 'wunit',
 xx_genarr2d_file(2)   = 'xx_h_streamice',
 xx_genarr2d_weight(2) = 'wunit',
 xx_gentim2d_file(1)   = 'xx_bdot_streamice',
 xx_gentim2d_period(1) = 6307200.,
 xx_gentim2d_weight(1) = 'wunit',
# genarr2dPrecond = 5 200
 &
