# =========================
# pkg AUTODIFF parameters :
# =========================
 &AUTODIFF_PARM01
 &
