#
# ********************************
# Off-line optimization parameters
# ********************************
 &ECCO_OPTIM
 optimcycle=0,
 numiter=1,
 nfunc=3,
 fmin=300.,
 iprint=10,
 nupdate=4,
 &
