
# ***************
# ECCO parameters
# ***************
 &ECCO_PARMS
 expId = 'MIT_CE_000',
 &
