#
# ********************************
# Off-line optimization parameters
# ********************************
 &OPTIM
 optimcycle=0,
 numiter=1,
 nfunc=2,
 fmin=0.05495D04,
 iprint=10,
 nupdate=4,
 &
