
# ***************
# ECCO parameters
# ***************
 &ECCO_PARMS
 &
