# Packages
 &PACKAGES
 useGMRedi=.TRUE.,
 useEXF   =.TRUE.,
 useCAL   =.TRUE.,
 useSEAICE=.TRUE.,
 useThSIce=.TRUE.,
 useDiagnostics=.TRUE.,
#useMNC = .TRUE.,
 &
