# SEAICE parameters
 &SEAICE_PARM01
 LSR_ERROR        = 1.E-12,
 &
