# SEAICE parameters
 &SEAICE_PARM01
 LSR_ERROR        = 1.E-12,
#SEAICEwriteState = .TRUE.,
#SEAICE_monFreq   = 2592000.,
 &
