# Packages
 &PACKAGES
 useSHAP_FILT = .TRUE.,
 useDiagnostics=.TRUE.,
 useGrdchk    = .TRUE.,
 useMYPACKAGE = .TRUE.,
 &
