#
# ********
# Packages
# ********
 &PACKAGES
 useSHAP_FILT = .TRUE., 
 useGrdchk    = .TRUE.,
 useMYPACKAGE = .TRUE.,
 &
