# Diagnostic Package Choices
 &diagnostics_list
  frequency(1) = 10.,
# Omit level(1,1) to diagnose ALL levels otherwise list individual levels here
#  levels(1,1) = 1.,3.,5.,
   fields(1,1) = 'VISCA4  ',
   filename(1) = 'visc',
 &end
