# Open-boundaries
 &OBCS_PARM01
# OB_Ieast=30*-1,
 OB_Iwest=45*1,
 OB_Jnorth=200*-1,
# OB_Jsouth=100*1
# useOrlanskiEast=.TRUE.,
 useOrlanskiWest=.TRUE.,
 useOrlanskiNorth=.FALSE.,
# useOrlanskiSouth=.TRUE.,
 useOBCSbalance=.TRUE.,
 OBCS_balanceFacW= 1.,
 OBCS_balanceFacN= 0.,
 OBCS_monitorFreq=3000.,
 &

 &OBCS_PARM02
 CMAX=0.5,
# CMAX=2.0,
 cvelTimeScale=10000.,
# CFIX=0.2,
 useFixedCEast=.FALSE.,
 useFixedCWest=.FALSE.,
 &
