# Packages
 &PACKAGES
 useMY82=.TRUE.,
 useDiagnostics=.TRUE.,
 useMNC=.TRUE.,
 &
