# Packages
 &PACKAGES
 useMY82=.TRUE.,
 &
