# Packages
 &PACKAGES
 usePTRACERS=.TRUE.,
 useGCHEM =.TRUE.,
 useGMRedi=.TRUE.,
 useOBCS  =.TRUE.,
 useDiagnostics=.TRUE.,
 &
