 &GCHEM_PARM01
  useDIC=.TRUE.,
  nsubtime=1,
  gchem_iceFile='fice_box.bin',
  gchem_windFile='tren_speed_box.bin',
  gchem_SiFile='sillev1_box.bin',
#
  gchem_apco2_const = 278.e-6,
  gchem_apres_const = 1013.25e2,
 &
