# Packages
 &PACKAGES
#useMNC=.TRUE.,
 useDiagnostics=.TRUE.,
 &
