# Packages
 &PACKAGES
 useGGL90=.TRUE.,
 &
