# Packages
 &PACKAGES
  useEXF         = .TRUE.,
  useCAL         = .TRUE.,
  useGMRedi      = .TRUE.,
  useGrdchk      = .TRUE.,
# useDiagnostics = .TRUE.,
 &
