#
#
# ******************
# cost function
# ******************
 &COST_NML
  mult_test = 1.,
 &
