# Packages
 &PACKAGES
 useGMRedi=.TRUE.
 usePTRACERS=.TRUE.
 &
  
