# Packages
 &PACKAGES
   useKPP     = .FALSE.,
   useMNC     = .TRUE.,
   useDIAGNOSTICS= .TRUE.,
 /
  
