# Packages
 &PACKAGES
  useGMRedi = .TRUE.,
  useKPP    = .TRUE.,
  useEXF    = .TRUE.,
  useSEAICE = .TRUE.,
  useDOWN_SLOPE=.TRUE.,
  useDiagnostics = .FALSE.,
  useCAL    = .TRUE.,
# useMNC    = .TRUE.,
# useECCO   = .TRUE.,
  useGrdchk = .TRUE.,
 &
