# Packages
 &PACKAGES
 useShelfIce=.TRUE.,
#useDiagnostics=.TRUE.,
 useMNC=.TRUE.,
 &
