# GMREDI parameters
 &GM_PARM01
  GM_background_K    = 571.0,
  GM_taper_scheme    = 'ldd97',
  GM_Small_Number    = 1.D-12,
  GM_slopeSqCutoff   = 1.D+08,
  GM_AdvForm         = .TRUE.,
  GM_maxSlope        = 1.D-2,
  GM_Kmin_horiz      = 50.,
  GM_Scrit           = 4.D-3,
  GM_Sd              = 1.D-3,
 &
