# Packages
 &PACKAGES
 useGMRedi = .TRUE.,
 useEXF    = .TRUE.,
 useCAL    = .TRUE.,
 useTHSICE = .FALSE.,
 useSEAICE = .TRUE.,
 useDiagnostics=.TRUE.,
#useMNC=.TRUE.,
 useGrdchk=.TRUE.,
 &
