# Packages
 &PACKAGES
 useGMRedi = .TRUE.,
 useEXF    = .TRUE.,
#useCAL    = .TRUE.,
 useThSIce = .FALSE.,
 useSEAICE = .TRUE.,
 useDiagnostics=.TRUE.,
#useMNC=.TRUE.,
 useGrdchk=.TRUE.,
 &
