# Packages
 &PACKAGES
 useShelfIce=.TRUE.,
 useOBCS=.TRUE.,
 useDiagnostics=.TRUE.,
#useMNC=.TRUE.,
 &
