# Packages
 &PACKAGES
  useEXF         = .TRUE.,
  useCAL         = .TRUE.,
  useGMRedi      = .TRUE.,
  useDiagnostics = .TRUE.,
  usePROFILES    = .TRUE.,
 &
