# ====================
# | Model parameters |
# ====================
#
# Continuous equation parameters
#
#   tRef            - Reference vertical potential temperature          (deg C)
#   sRef            - Reference vertical salinity                         (PSU)
#   viscAh          - Horizontal eddy viscosity coefficient             (m^2/s)
#   viscAz          - Vertical eddy viscosity coefficient               (m^2/s)
#   diffKhT         - Horizontal temperature diffusivity                (m^2/s)
#   diffKzT         - Vertical temperature diffusivity                  (m^2/s)
#   diffKhS         - Horizontal salt diffusivity                       (m^2/s)
#   diffKzS         - Vertical salt diffusivity                         (m^2/s)
#   gravity         - Acceleration due to gravity                       (m/s^2)
#   rigidLid        - Set to true to use rigid lid
#   implicitFreeSurface - Set to true to use implicit free surface
#   eosType         - Flag for linear or polynomial equation of state
#   momAdvection    - On/Off flag for momentum self transport
#   momViscosity    - On/Off flag for momentum mixing
#
 &PARM01
 tRef= 3*4.0 ,
 sRef= 3*34.65,
 no_slip_sides=.FALSE.,
 no_slip_bottom=.TRUE.,
 viscAz=1.93e-5,
 viscAh=5.E4,
 diffKhT=0.0,
 diffKzT=1.46e-5,
 diffKhS=0.0,
 diffKzS=1.46e-5,
 eosType='JMD95Z',
 saltStepping=.FALSE.,
 tempStepping=.FALSE.,
 momStepping=.FALSE.
 allowFreezing=.FALSE.,
 HeatCapacity_Cp = 3986.0,
 gravity         = 9.8156,
 rhoConst        = 1027.0,
 rhoConstFresh   = 999.8,
 readBinaryPrec=32,
 writeBinaryPrec=32,
#- not safe to use globalFiles in multi-processors runs
#globalFiles=.TRUE.,
 &

# Elliptic solver parameters
#
#   cg2dMaxIters       - Maximum number of 2d solver iterations
#   cg2dTargetResidual - Solver target residual
#
 &PARM02
 cg2dMaxIters=500,
 cg2dTargetResidual=1.D-8
 &

# Time stepping parameters
#
#   startTime         - Integration starting time                (s)
#   endTime           - Integration ending time                  (s)
#   tauCD             - CD scheme coupling timescale             (s)
#   deltaTMom         - Timestep for momemtum equations          (s)
#   deltaTtracer      - Tracer timestep                          (s)
#   deltaTClock       - Timestep used as model "clock"           (s)
#   abEps             - Adams-Bashforth stabilising factor
#   pChkPtFreq        - Frequency of permanent check pointing    (s)
#   chkPtFreq         - Frequency of rolling check pointing      (s)
#   dumpFreq          - Frequency at which model state is stored (s)
#   tauThetaClimRelax - Relaxation to climatology time scale     (s)
#   tauSaltClimRelax  - Relaxation to climatology time scale     (s)
#
 &PARM03
 nIter0=0,
 nTimeSteps=1440,
 deltaTmom=3600.0,
 deltaTtracer=3600.0,
 deltaTClock =3600.0,
 cAdjFreq=0.,
 abEps=0.1,
 forcing_In_AB = .FALSE.,
# pChkptFreq=36000.,
# chkptFreq= 0.,
# dumpFreq = 0.,
 tavefreq = 5184000.,
 monitorFreq=864000.,
# adjDumpFreq=86400.,
 &

# Gridding parameters
#
#   usingSphericalPolarGrid - On/Off flag for spherical polar coordinates
#   delX                    - Zonal grid spacing         (degrees)
#   delY                    - Meridional grid spacing    (degrees)
#   delZ                    - Vertical grid spacing      (m)
#   ygOrigin                - Southern boundary latitude (degrees)
#
 &PARM04
 usingSphericalPolarGrid=.TRUE.,
 delX=20*2.E0,
 delY=16*2.E0,
 delZ= 10.,10.,10.,
 ygOrigin=46.,
 xgOrigin=280.,
 rSphere         = 6371.D3
 &

# Input datasets
#
#   bathyFile       - File containing bathymetry
#   hydrogThetaFile - File containing initial potential temperature data
#   hydrogSaltFile  - File containing initial salinity data
#   zonalWindFile   - File containing zonal wind data
#   meridWindFile   - File containing meridional wind data
#   thetaClimFile   - File containing theta climatology used for relaxation
#   saltClimFile    - File containing salt climatology used for relaxation
#
 &PARM05
 bathyFile       = 'bathy.labsea1979',
 hydrogThetaFile = 'LevCli_temp.labsea1979',
 hydrogSaltFile  = 'LevCli_salt.labsea1979',
 &

