# Packages
 &PACKAGES
  useEXF    = .TRUE.,
  useSEAICE = .FALSE.,
# useMNC    = .TRUE.,
  useDiagnostics = .TRUE.,
 &
