# SEAICE parameters
 &SEAICE_PARM01
 SEAICErestoreUnderIce=.TRUE.,
 usePW79thermodynamics=.FALSE.,
 SEAICE_strength    = 2.6780e+04,
 OCEAN_drag         = 8.1541e-04,
 SEAICE_waterDrag   = 5.3508,
 LSR_ERROR          = 1.E-12,
 SEAICElinearIterMax= 1500,
 LSR_mixIniGuess    = 1,
 SEAICE_no_Slip     = .FALSE.,
 SEAICEwriteState   = .TRUE.,
 SEAICE_monFreq = 21600.,
 SEAICE_monFreq = 1800.,
 &

 &SEAICE_PARM03
 &
