# Packages
 &PACKAGES
 useICEBERG=.TRUE.,
 useDiagnostics=.TRUE.,
 useOBCS=.TRUE.,
 &
