 &GCHEM_PARM01
  useBATS=.TRUE.,
  nsubtime=1,
 &
