# Packages
 &PACKAGES
 useGMRedi=.TRUE.,
#useDiagnostics=.TRUE.,
#useMNC=.TRUE.,
#useBulkforce=.TRUE.,
#useThermSeaIce=.TRUE.,
 &
