# Packages
 &PACKAGES
 useGMRedi=.TRUE.,
 useDiagnostics=.TRUE.,
 useMNC=.TRUE.,
 &
