# Packages
 &PACKAGES
 useGMRedi=.TRUE.,
#useBulkforce=.TRUE.,
#useThermSeaIce=.TRUE.,
 &
