# Packages
 &PACKAGES
 useOBCS=.FALSE.,
 useFLT=.TRUE.,
 &
