 &GCHEM_PARM01
  useBLING=.TRUE.,
  nsubtime=1,
 &
