# Packages
 &PACKAGES
 useGMRedi=.TRUE.,
 useEBM=.TRUE.,
 &
  
