# Packages
 &PACKAGES
 useSHAP_FILT=.TRUE.,
 useDiagnostics=.TRUE.,
 useAtm_Phys=.TRUE.,
#useMNC = .TRUE.,
 &
