# Packages
 &PACKAGES
 useFIZHI=.TRUE.,
 useGRIDALT=.TRUE.,
 useSHAP_FILT=.TRUE.,
 useDIAGNOSTICS=.TRUE.,
 useMNC=.TRUE.,
 &
