# Diagnostic Package Choices
 &diagnostics_list
  frequency(1) = 4,
   levels(1,1) = 1.,
   fields(1,1) = 'ETAN   ',
   filename(1) = 'surface',
  frequency(2) = 10,
   levels(1,2) = 1.,2.,3.,4.,5.,6.,7.,8.,9.,10.,11.,12.,13.,14.,15.,16.,17.,18.,19.,20.,
   fields(1,2) = 'UDIAG4  ',
   filename(2) = 'fizhidt',
 &end
