# Packages
 &PACKAGES
  useKPP    = .TRUE.,
  useEXF    = .TRUE.,
  useSEAICE = .TRUE.,
#  useDiagnostics = .TRUE.,
  useECCO   = .TRUE.,
  useGrdchk = .TRUE.,
#  useMNC    = .TRUE,
 &
