# Packages
 &PACKAGES
  useKPP    = .TRUE.,
  useEXF    = .TRUE.,
  useSEAICE = .TRUE.,
  useDiagnostics = .FALSE.,
  useECCO   = .TRUE.,
  useGrdchk = .TRUE.,
 &
