# Packages
 &PACKAGES
 useOBCS=.TRUE.,
#usePtracers=.TRUE.,
#useRBCS=.TRUE.,
#useLayers=.TRUE.,
 &
