# Packages
 &PACKAGES
 useAIM=.TRUE.,
 useSHAP_FILT=.TRUE.,
 useZONAL_FILT=.TRUE.,
 &
