# Packages
 &PACKAGES
 useAIM=.TRUE.,
 useSHAP_FILT=.TRUE.,
 &
