# Packages
 &PACKAGES
 useDiagnostics=.TRUE.,
 useMNC=.TRUE.,
 &
