#
#
# ******************
# ECCO cost function
# ******************
 &COST_NML
#
 mult_tracer  = 1.,
 mult_test    = 1.,
 mutl_atl     = 1.,
#
 iprec_cost  = 64,
 yftype_cost = 'RL',
 &
