# KPP parameters
 &KPP_PARM01
 KPPmixingMaps   = .FALSE.,
#KPPwriteState   = .true.,
 &
