# Packages
 &PACKAGES
 useOBCS      = .TRUE.,
 useShelfIce  = .TRUE.,
 useStreamIce = .TRUE.,
 useDiagnostics=.TRUE.,
 &
