# SEAICE parameters
 &SEAICE_PARM01
# SEAICEwriteState = .TRUE.,
# SEAICE_waterDrag = 1.e-10,
# SEAICE_waterTurnAngle = 20.,
# LSR_ERROR = 1.e-20,
  SEAICE_initialHEFF = 1.0,
  HO = 1.,
  SEAICE_strength = 2.e4,
  DIFF1 = 0.,
  SEAICEadvScheme = 33,
 &
