# Packages
 &PACKAGES
 useGMRedi=.TRUE.,
 usePTRACERS=.TRUE.,
 useGCHEM=.TRUE.,
 useMNC=.FALSE.,
 useDiagnostics=.FALSE.,
 useGrdchk    = .TRUE.,
 &
  
