# Example "data.mnc" file
# Lines beginning "#" are comments
 &MNC_01
# mnc_echo_gvtypes=.FALSE.,
# mnc_use_indir=.FALSE.,
  mnc_use_outdir=.TRUE.,
  mnc_outdir_str='mnc_test_',
  monitor_mnc=.FALSE.,
  pickup_read_mnc=.FALSE.,
  pickup_write_mnc=.FALSE.,
 &
