# Example "data.mnc" file
 &MNC_01
# mnc_echo_gvtypes=.FALSE.,
# mnc_use_indir=.FALSE.,
  mnc_use_outdir=.FALSE.,
  monitor_mnc=.FALSE.,
  pickup_read_mnc=.FALSE.,
  pickup_write_mnc=.FALSE.,
 &
