# =====================================================================
# | Parameters for Pacanowski&Philander (1981) vertical mixing scheme |
# =====================================================================
 &KPP_PARM01
 KPPwriteState=.TRUE.,
 minKPPhbl = 10.,
 Ricr = 0.45,
 &
