# Packages
 &PACKAGES
 useKPP=.TRUE.,
 useDiagnostics=.TRUE.,
 useMNC=.TRUE.,
 &
