#
#
# ******************
# ECCO cost function
# ******************
 &COST_NML
 mult_test    = 1.,
# only compute depth cost function,
# but do not add it the global cost function
 mult_depth   = 0.,
 &
