#
#
# ******************
# ECCO cost function
# ******************
 &COST_NML
 mult_tracer  = 0.,
 mult_test    = 1.,
 mult_depth   = 1.,
 &
