#
# ********
# Packages
# ********
 &PACKAGES
 useGMRedi    = .FALSE.,
 useKPP       = .FALSE.,
 useGrdchk    = .TRUE., 
 useECCO      = .FALSE.,
 &
