# *********************
# ECCO controlvariables
# *********************
 &CTRL_NML
 &
#
# *********************
# names for ctrl_pack/unpack
# *********************
 &CTRL_PACKNAMES
 &
#
# *********************
# names for CTRL_GENARR
# *********************
 &CTRL_NML_GENARR
 xx_genarr2d_file(1)       = 'xx_depth',
 xx_genarr2d_weight(1)     = 'ones_64b.bin',
# only compute depth cost function,
# but do not add it the global cost function
 mult_genarr2d(1)          = 0.,
 &
