# Packages
 &PACKAGES
 useGMREDI      = .TRUE.,
 usePTRACERS    = .TRUE.,
 useGCHEM       = .TRUE.,
 useOBSFIT      = .TRUE.,
 useDIAGNOSTICS = .TRUE.,
 &
  
