# Packages
 &PACKAGES
 useGMRedi = .TRUE.,
 useEXF    = .TRUE.,
 useCAL    = .TRUE.,
 useTHSICE = .TRUE.,
#useDiagnostics=.TRUE.,
#useMNC=.TRUE.,
 useGrdchk=.TRUE.,
 &
