# Packages
 &PACKAGES
  useEXF    = .TRUE.,
  useSEAICE = .TRUE.,
  useDiagnostics=.TRUE.,
 &
