# Packages
 &PACKAGES
 useATM2D=.TRUE.,
# useGMRedi=.TRUE.,
# useZONAL_FILT=.TRUE.,
# usePTRACERS=.FALSE.,
# useBulkf=.TRUE.,
 useThSIce=.TRUE.,
 &

