# Packages
 &PACKAGES
  useEXF         = .TRUE.,
  useGMRedi      = .TRUE.,
  usediagnostics = .TRUE.,
# use genmake with  -enable=ptracers  before uncommenting this line.
#usePTRACERS=.TRUE.,
 &
  
