# Packages
 &PACKAGES
  useEXF         = .TRUE.,
  useGMRedi      = .TRUE.,
  usediagnostics = .TRUE.,
 &
  
