# Packages
 &PACKAGES
 useGMRedi=.TRUE.,
# use genmake with  -enable=ptracers  before uncommenting this line.
#usePTRACERS=.TRUE.,
 &
  
