# Diagnostic Package Choices
# This example dumps all KPP diagnostics as
# a snapshot after ten time steps
 &diagnostics_list
  frequency(1) = -20,
   fields(1,1) = 'EXFhs   ',
   filename(1) = 'EXFhs',
  frequency(2) = -20,
   fields(1,2) = 'EXFhl   ',
   filename(2) = 'EXFhl',
  frequency(3) = -20,
   fields(1,3) = 'EXFsw   ',
   filename(3) = 'EXFsw',
  frequency(4) = -20,
   fields(1,4) = 'EXFlw   ',
   filename(4) = 'EXFlw',
 &end
