# Packages
 &PACKAGES
  useGMRedi=.TRUE.,
  useKPP=.TRUE.,
  useDiagnostics=.TRUE.,
  usePTRACERS=.TRUE.,
 &
