# Packages
 &PACKAGES
  useKPP    = .TRUE.,
  useEXF    = .TRUE.,
  useSEAICE = .TRUE.,
#  useDiagnostics = .TRUE.,
#  useMNC = .TRUE.,
 &
