# Packages
 &PACKAGES
  useKPP    = .TRUE.,
  useEXF    = .TRUE.,
  useSEAICE = .TRUE.,
  useDiagnostics = .FALSE.,
 &
