# Packages
 &PACKAGES
  useGMRedi = .TRUE.,
  useMNC     = .TRUE.,
  useDiagnostics=.TRUE.,
 &
