 &GCHEM_PARM01
  iceFile='ice.bin',
  windFile='tren_speed.bin',
 &
