 &GCHEM_PARM01
  iceFile='fice.bin',
  windFile='tren_speed.bin',
 &
