 &GCHEM_PARM01
  tIter0= 4248000,
  iceFile='fice.bin',
  windFile='tren_speed.bin',
  nsubtime=1,
 &
