# Packages
 &PACKAGES
 useMNC=.FALSE.,
 useShelfIce=.TRUE.,
 useGrdchk=.TRUE.,
 &
