
#
# ***************
# Open boundaries
# ***************
 &KPP_PARM01
# KPPwriteState   = .TRUE.,
 &
