# KPP parameters
 &KPP_PARM01
 KPPmixingMaps   = .FALSE.,
 KPPwriteState   = .TRUE.,
 KPP_ghatUseTotalDiffus=.TRUE.,
 &
