#
# ********************************
# Off-line optimization parameters
# ********************************
 &OPTIM
 optimcycle=0,
### fmin=0.114353293471930D+04,
 &
