
#
# ***************
# Open boundaries
# ***************
 &KPP_PARM01
 &
