# Packages
 &PACKAGES
 useFizhi=.TRUE.,
 useGridAlt=.TRUE.,
 useSHAP_FILT=.TRUE.,
 useDiagnostics=.TRUE.,
 useMNC=.TRUE.,
 &
