 &GCHEM_PARM01
  useDIC=.TRUE.,
  nsubtime=1,
#  
  gchem_windFile='tren_speed.bin',
  gchem_iceFile='fice.bin',
  gchem_SiFile='sillev1.bin',
#
  gchem_apco2_const = 278e-6,
 &


