# RBCS package parameters:
 &RBCS_PARM01
   tauRelaxT=864000.,
   relaxMaskFile='T_relax_mask.bin'
   relaxTFile='temperature.bin',
   useRBCtemp=.TRUE.,
 &

# RBCS for pTracers (read this namelist only when ptracers pkg is compiled)
 &RBCS_PARM02
 &
