# Packages
 &PACKAGES
 useRBCS=.TRUE.,
 useDiagnostics=.TRUE.,
 useGMRedi=.FALSE.,
 useLayers=.TRUE.,
 &
