
# ***************
# ECCO parameters
# ***************
 &ECCO_PARMS
 expId = 'VERO_TEST_000',
 &

