# Packages
 &PACKAGES
 useSHAP_FILT = .TRUE.,
 useDiagnostics=.TRUE.,
 useMYPACKAGE = .TRUE.,
#useMNC=.TRUE.,
 &
