# Packages
 &PACKAGES
 useDiagnostics = .TRUE.,
 useShelfIce=.true.,
 &
