# Packages
 &PACKAGES
 useRBCS=.TRUE.,
 useGMRedi=.TRUE.,
 useDiagnostics=.TRUE.,
 useLayers=.TRUE.,
#---------------------------------------
#- for non-GM or eddy-permitting run, deactivate GMRedi package:
# useGMRedi=.FALSE.,
 &
