# RBCS package parameters:
 &RBCS_PARM01
 useRBCtemp=.TRUE.,
 tauRelaxT=864000.,
 relaxMaskFile='T_relax_mask.50km.bin'
 relaxTFile='temperature.50km.bin',
 &

# RBCS for pTracers (read this namelist only when ptracers pkg is compiled)
 &RBCS_PARM02
 &
