# Packages
 &PACKAGES
  useEXF         = .FALSE.,
  useCAL         = .FALSE.,
  useGMRedi      = .FALSE.,
  useGrdchk      = .TRUE.,
# useDiagnostics = .FALSE.,
 &
