 &AUTODIFF_PARM01
 SEAICEuseFREEDRIFTswitchInAd = .TRUE.
 &
