# Packages
 &PACKAGES
  useEXF    = .TRUE.,
  useCAL    = .TRUE.,
  useSEAICE = .TRUE.,
  useOBCS   = .TRUE.,
  useDiagnostics=.TRUE.,
  useGrdchk = .TRUE.,
 &
