# =========================
# pkg AUTODIFF parameters :
# =========================
#  inAdExact :: get an exact adjoint (no approximation) (def=.True.)
#
 &AUTODIFF_PARM01

 SIregFacInAd = 0.0,
 SIregFacInFw = 1.0,
 useSALT_PLUMEinAdMode = .FALSE.,
 useKPPinAdMode = .FALSE.,
 useSEAICEinAdMode = .TRUE.,
 SEAICEuseDYNAMICSswitchInAd = .TRUE.,

# inAdExact = .FALSE.,
# useKPPinAdMode = .FALSE.,
# useGMRediInAdMode = .FALSE.,
 &
