# =========================
# pkg AUTODIFF parameters :
# =========================
#  inAdExact :: get an exact adjoint (no approximation) (def=.True.)
#  SEAICEuseFREEDRIFTswitchInAd :: switch on/off Free-Drift in AD mode (def=F)
#
 &AUTODIFF_PARM01
# inAdExact = .FALSE.,
  SEAICEuseFREEDRIFTswitchInAd = .TRUE.,
 &
