# Packages
 &PACKAGES
 useMNC=.TRUE.,
 useShelfIce=.true.,
 &
