# ===================================
# | Parameters for SHELFICE package |
# ===================================
 &SHELFICE_PARM01
 SHELFICEboundaryLayer = .TRUE.,
 SHELFICEloadAnomalyFile = 'phi0surf.exp1.jmd95z',
 useISOMIPTD = .TRUE.,
 no_slip_shelfice = .false.,
 SHELFICEwriteState = .TRUE.,
 &
