# Packages
 &PACKAGES
  useGMRedi=.FALSE.,
  useKPP=.TRUE.,
  useECCO=.FALSE.,
 &
