# Packages
 &PACKAGES
 useShelfIce=.TRUE.,
 useSTIC=.TRUE.,
 useDiagnostics = .TRUE.,
 &
