# Packages
 &PACKAGES
 useSHELFICE=.TRUE.,
#useDiagnostics=.TRUE.,
#useMNC=.TRUE.,
 &
