# Packages (lines beginning "#" are comments)
 &PACKAGES
  useGMRedi=.TRUE.,
# useDiagnostics=.TRUE.,
 &
