# Packages
 &PACKAGES
  use_GMRedi=.TRUE.,
 &
