# Packages
 &PACKAGES
  useGMRedi=.TRUE.,
  useKPP=.FALSE.,
 &
