# GM-Redi parameters
 &GM_PARM01
  GM_background_K=1000.,
# GM_taper_scheme=' ',
  GM_maxSlope=1.E-02,
 &
