# Packages
 &PACKAGES
 useCAL=.TRUE.,
 useEXF=.TRUE.,
 useGMRedi=.TRUE.,
 usePTRACERS=.TRUE.,
 useGCHEM=.TRUE.,
#useMNC=.TRUE.,
 useDiagnostics=.TRUE.,
 &
  
