# Packages
 &PACKAGES
 useOBCS=.TRUE.,
 useKL10=.TRUE.,
 &
