# Packages
 &PACKAGES
# useMNC=.TRUE.,
 useStreamIce=.true.
 useDiagnostics = .true.,
 useGrdchk = .true.,
 &
