# SEAICE parameters
 &SEAICE_PARM01
 SEAICEwriteState   = .TRUE.,
 SEAICE_initialHEFF = 1.0,
 SEAICE_deltaTtherm = 3600.,
 SEAICE_deltaTdyn   = 3600.,
#LSR_ERROR          = 1.E-12,
 SEAICE_deltaTevp   = 30.,
 useHB87stressCoupling = .TRUE.,
 SEAICE_no_slip     = .TRUE.,
 AreaFile           = 'AREA.0000008760',
 HsnowFile          = 'HSNOW.0000008760',
 HsaltFile          = 'HSALT.0000008760',
 HeffFile           = 'HEFF.0000008760',
 &

 &SEAICE_PARM03
 &
