# Packages
 &PACKAGES
  useGMRedi = .TRUE.,
  useKPP    = .TRUE.,
  useEXF    = .TRUE.,
  useSEAICE = .TRUE.,
  useDiagnostics = .TRUE.,
# useMNC    = .TRUE.,
 &
