#
# ********
# Packages
# ********
 &PACKAGES
 useGMRedi    = .FALSE.,
 useKPP       = .FALSE.,
 useGrdchk    = .FALSE.,
 useMNC       = .FALSE.,
 &
