# Packages
 &PACKAGES
 useGMRedi=.FALSE.,
 usePTRACERS=.FALSE.,
 useMNC=.FALSE.,
 &
  
