# This set-up makes is supposed to immitate salt. That is, PTRACER(:,:,:,1) 
# should look exactly like S(:,:,:).
 &PTRACERS_PARM01
 PTRACERS_numInUse=1,
 PTRACERS_advScheme=2,
 PTRACERS_diffKh=0.E3,
 PTRACERS_diffKr=3.E-5,
 PTRACERS_initialFile='lev_s.bin',
#EH3 added for MNC
#
# The following option is now obsolete:
#  PTRACERS_write_mnc=.TRUE.,
 PTRACERS_names(1)='salt_mimic',
 &
