# Packages (lines beginning "#" are comments)
 &PACKAGES
 useGMRedi=.TRUE.,
# usePTRACERS=.TRUE.,
 useSBO=.TRUE.,
 useMNC=.TRUE.,
 &
