# SEAICE parameters
 &SEAICE_PARM01
    SEAICEadvScheme    = 7,
    SEAICE_dryIceAlb   = 0.8783,
    SEAICE_wetIceAlb   = 0.7869,
    SEAICE_drySnowAlb  = 0.9686,
    SEAICE_wetSnowAlb  = 0.8270,
    SEAICE_strength    = 2.6780e+04,
    SEAICE_waterDrag   = 5.3508,
    LSR_ERROR          = 2e-4,
    SEAICE_saltFrac    = 0.3,
    SEAICE_mcPheePiston= 0.0008333,
    SEAICE_frazilFrac  = 0.1,
    SEAICE_initialHEFF = 0.0,
    HsnowFile          = 'snow_0m_1x1',
 &

 &SEAICE_PARM03
 &
