# Open-boundaries
 &OBCS_PARM01
 OB_Jnorth=80*-1,
 OB_Jsouth=80*1,
 OB_Ieast=42*-1,
 OB_Iwest=42*1,
#useOrlanskiNorth=.TRUE.,
#useOrlanskiSouth=.TRUE.,
#useOrlanskiEast=.TRUE.,
#Orlanski_Cmax=0.45,
#Orlanski_TimeScale=1000.,
 &
