# Packages
 &PACKAGES
 useOBCS=.TRUE.,
 usePtracers=.TRUE.,
 &
