#
#
# ******************
# ECCO cost function
# ******************
 &ECCO_COST_NML
#
 cost_iprec  = 32,
 cost_yftype = 'RL',
 &
