#
#
# *********************
# ECCO controlvariables
# *********************
 &CTRL_NML
 &
#
# *********************
# names for ctrl_pack/unpack
# *********************
 &CTRL_PACKNAMES
 ctrlname = 'ecco_ctrl',
 costname = 'ecco_cost',
 &
