# SEAICE parameters
 &SEAICE_PARM01
      SEAICEwriteState   = .TRUE.,
      SEAICE_initialHEFF = 1.0,
      SEAICE_deltaTtherm = 3600.,
      SEAICE_deltaTdyn   = 3600.,
      SEAICEuseDYNAMICS  =.FALSE.,
      LSR_ERROR          = 1.E-12,
 &
#
 &SEAICE_PARM02
  mult_ice   = 1.,
# choose which seaice cost term you want
  cost_ice_flag = 1,
 &
