# Packages
 &PACKAGES
  useEXF    = .TRUE.,
  useCAL    = .TRUE.,
  useSEAICE = .TRUE.,
# useThSIce = .TRUE.,
  useDiagnostics=.TRUE.,
  useGrdchk = .TRUE.,
 &
