 &ctrl_nml
  doMainUnpack=.FALSE.,
  doMainPack=.FALSE.,
 /
#
 &ctrl_packnames
 /

