# ********
# Packages
# ********
 &PACKAGES
 useGMRedi    = .TRUE.,
 useGGL90     = .TRUE.,
#useKPP       = .TRUE.,
 useGrdchk    = .TRUE.,
#useMNC       = .TRUE.,
 &
