# SEAICE parameters
 &SEAICE_PARM01
      npseudo           = 1
      LSR_ERROR         = 1e-10
      SEAICEwriteState  = .TRUE.
 &
