# Packages
 &PACKAGES
  useGMRedi = .TRUE.,
  useKPP    = .TRUE.,
  useSEAICE = .TRUE.,
  useECCO   = .FALSE.,
 &
