# SEAICE parameters
 &SEAICE_PARM01
      SEAICEwriteState   = .TRUE.,
      SEAICE_initialHEFF = 1.0,
      SEAICE_deltaTtherm = 3600.,
      SEAICE_deltaTdyn   = 3600.,
#     SEAICEuseDYNAMICS  =.FALSE.,
      LSR_ERROR          = 1.E-12,
#     seaice_mnc         = .TRUE.,
 &
