# KPP parameters
 &KPP_PARM01
 KPPmixingMaps   = .FALSE.,
 KPPwriteState   = .TRUE.,
 kpp_taveFreq    = 864000.,
 &
