# SEAICE parameters
 &SEAICE_PARM01
      SEAICEwriteState   = .TRUE.
      SEAICE_initialHEFF = 1.0
 &
