# SEAICE parameters
 &SEAICE_PARM01
#- old default for useFluxForm and DIFF1:
 SEAICEuseFluxForm  = .FALSE.,
 DIFF1 = 4.E-3,
 SEAICE_initialHEFF = 1.0,
 SEAICE_deltaTtherm = 3600.,
 SEAICE_deltaTdyn   = 3600.,
 LSR_ERROR          = 1.E-12,
# SEAICE_deltaTevp   = 30.,
 SEAICEwriteState   = .TRUE.,
 &

 &SEAICE_PARM03
 &

