# Packages
 &PACKAGES
  useGMRedi = .TRUE.,
  useKPP    = .TRUE.,
  useSEAICE = .TRUE.,
  useMNC    = .TRUE.,
 &
