#
# ***************
# package flags
# ***************
 &PACKAGES
 useKPP	        = .TRUE.,
 useGMRedi      = .TRUE.,
 useSeaice      = .FALSE.,
 useDiagnostics = .FALSE.,
 &
