# Packages
 &PACKAGES
 useShelfIce=.TRUE.,
 useGrdchk=.TRUE.,
 &
