# Packages
 &PACKAGES
  useGMRedi = .FALSE.,
  useKPP    = .FALSE.,
  useSEAICE = .TRUE.,
  useMNC    = .TRUE.,
  useOBCS   = .FALSE., 
  useGrdchk = .FALSE.,
  useDiagnostics = .FALSE.,
&
