# Packages
 &PACKAGES
 usePTRACERS=.TRUE.,
 useMATRIX  =.TRUE.,
 &
  
