#
# *********************
# External Forcing Data
# *********************
 &EXF_NML_01
#
 useExfCheckRange  = .TRUE.,
#repeatPeriod      = 2635200.0,
 exf_iprec         = 64,
 exf_monFreq       = 86400000.,
#useRelativeWind = .TRUE.,
#
 &

# *********************
 &EXF_NML_02
#
 atempperiod       = 0.0,
 aqhperiod         = 0.0,
#
 uwindperiod       = 0.0,
 vwindperiod       = 0.0,
#
 precipperiod      = 0.0,
 swdownperiod      = 0.0,
 lwdownperiod      = 0.0,
#
 climsstperiod      = 0.0,
 climsstTauRelax    = 2592000.,
#
 climsssperiod      = 0.0,
#climsssTauRelax    = 2592000.,
#
 atempfile         = 'tair_4x.bin',
 aqhfile           = 'qa70_4x.bin',
 uwindfile         = 'windx.bin',
#vwindfile         = 'windy.bin',
 precipfile        = 'const_00.bin',
 lwdownfile        = 'dlw_250.bin',
 swdownfile        = 'dsw_100.bin',
 runoffFile        = ' '
 climsstfile       = 'tocn.bin',
#climsssfile       = 'socn.bin',
 &

# *********************
 &EXF_NML_03
#exf_offset_atemp=5;
 &

# *********************
# old open64 compiler (4.2.1) cannot skip this namelist to read in the next one;
# comment out this namelist (not read).
#&EXF_NML_04
#&

# *********************
 &EXF_NML_OBCS
 &
