# Packages
 &PACKAGES
 useGGL90=.TRUE.,
 useDiagnostics=.TRUE.,
 useMNC=.TRUE.,
 &
