
#
# *************************
# Automatic differentiation
# *************************
 &AUTODIFF_PARM01
 &
