# Packages
 &PACKAGES
# useMNC=.TRUE.,
 useStreamIce= .TRUE.,
 useDiagnostics= .FALSE.,
 useGrdchk = .TRUE.,
 &
