# Packages
 &PACKAGES
  useGMRedi = .TRUE.,
  useKPP    = .TRUE.,
  useEXF    = .TRUE.,
  useCAL    = .TRUE.,
  useSEAICE = .TRUE.,
  useSALT_PLUME  = .TRUE.,
  useOBCS        = .TRUE.,
 &
