 &SALT_PLUME_PARM01
 SaltPlumeCriterion = 0.4D0
 &
