# Packages
 &PACKAGES
 useSHAP_FILT=.TRUE.,
 &
