# Example "data.mnc" file
 &MNC_01
 monitor_mnc=.FALSE.,
#comment out the following two lines to run tutorial, required for testing purposes
 mnc_use_outdir=.TRUE.,
 mnc_outdir_str='mnc_test_',
 &

