# Example "data.mnc" file
 &MNC_01
 monitor_mnc=.FALSE.,
 &

