
#
# *************************
# Automatic differentiation
# *************************
 &AUTODIFF
  using_autodiff=.true.,
 /
