# Packages
 &PACKAGES
 useMNC=.TRUE.,
 useShelfIce=.TRUE.,
 useSTIC=.TRUE.,
 useGrdchk=.TRUE.,
 &
