# Packages
 &PACKAGES
 useDIAGNOSTICS=.TRUE.,
 useNF90IO=.TRUE.,
 /
