# Packages
 &PACKAGES
 useOBCS=.TRUE.,
 useMNC=.TRUE.,
 &
