# Open-boundaries
 &OBCS_PARM01
 OB_Ieast=-1,
 OB_Iwest=1,
 &

