# ********
# Packages
# ********
 &PACKAGES
 useGMRedi    = .TRUE.,
 useGrdchk    = .TRUE.,
 useMNC       = .TRUE.,
 &
