# Packages
 &PACKAGES
  useEXF         = .TRUE.,
  useCAL         = .TRUE.,
  useGMRedi      = .TRUE.,
  useFRAZIL      = .TRUE.,
  useBBL         = .TRUE.,
  useDiagnostics = .TRUE.,
 &
