# Packages
 &PACKAGES
  useAUTODIFF    = .TRUE.,
  useSALT_PLUME  = .TRUE.,
  useKPP    = .TRUE.,
  useEXF    = .TRUE.,
  useSEAICE = .TRUE.,
  useDOWN_SLOPE=.TRUE.,
  useDiagnostics = .TRUE.,
# useMNC    = .TRUE.,
  useECCO   = .TRUE.,
#  useGrdchk = .TRUE.,
  useGrdchk = .FLASE.,
 &
