# Packages (lines beginning "#" are comments)
 &PACKAGES
 useGMRedi=.TRUE.,
 useDiagnostics=.TRUE.,
 useGGL90=.TRUE.,
#useMNC=.TRUE.,
 &
