# Packages
 &PACKAGES
# useMNC=.TRUE.,
 useStreamIce= .TRUE.,
 useDiagnostics= .TRUE.,
 useGrdchk = .FALSE.,
 &
