# ********************************
# Off-line optimization parameters
# ********************************
 &OPTIM
 optimcycle=0,
 numiter=1,
 nfunc=3,
 fmin=30.0,
 iprint=10,
 nupdate=4,
 &
