# ******************
# cost function
# ******************
 &COST_NML
 &
