# Packages
 &PACKAGES
 useECCO=.TRUE.,
 useOBCS=.TRUE.,
 useEXF=.TRUE.,
 useDiagnostics=.TRUE.,
 useGrdchk = .TRUE.,
 /
