# Packages
 &PACKAGES
  useGMRedi=.TRUE.,
  useKPP=.FALSE.,
  useDiagnostics=.TRUE.,
 &
