# Packages
 &PACKAGES
  useCheapAML=.TRUE.,
  useDiagnostics=.TRUE.,
  useMNC=.TRUE.,
 &
