# Packages
 &PACKAGES
  useCheapAML=.TRUE.,
  useDIAGNOSTICS=.TRUE.,
  useMNC=.TRUE.,
 &
