# Example "data.mnc" file
# Lines beginning "#" are comments
 &MNC_01
# mnc_echo_gvtypes=.FALSE.,
  mnc_use_indir=.TRUE.,
  mnc_indir_str='start/',
  mnc_use_outdir=.TRUE.,
  mnc_outdir_str='mnc_test_',
  mnc_outdir_date=.FALSE.,
  monitor_mnc=.FALSE.,
# snapshot_mnc=.FALSE.,
# timeave_mnc=.FALSE.,
  pickup_write_mnc=.FALSE.,
  pickup_read_mnc=.FALSE.,
 &
