# =====================================================================
# | Parameters for Pacanowski&Philander (1981) vertical mixing scheme |
# =====================================================================
 &KPP_PARM01
 KPPwriteState=.TRUE.,
 KPPuseDoubleDiff = .TRUE.,
 &
