# SEAICE parameters
 &SEAICE_PARM01
#SEAICE_monFreq        = 2592000.,
#SEAICEwriteState      = .TRUE.,
 LSR_ERROR             = 1.E-12,
#SEAICE_deltaTevp = 60.,
#SEAICEuseDynamics = .FALSE.,
# for backward compatibility only
 SEAICE_clipVelocities = .TRUE.,
#
 SIsal0                = 4.,
 SEAICEadvHeff         = .TRUE.,
 SEAICEadvArea         = .TRUE.,
 SEAICEadvSnow         = .TRUE.,
 SEAICEadvScheme       = 77,
 DIFF1                 = 0.,
 &
