# Packages
 &PACKAGES
  useEXF    = .TRUE.,
# useSEAICE = .TRUE.,
  useThSIce = .TRUE.,
  useDiagnostics=.TRUE.,
 &
