# Packages
 &PACKAGES
  useEXF    = .TRUE.,
  useSEAICE = .TRUE.,
  useMNC    = .TRUE.,
  useDiagnostics = .TRUE.,
 &
