#
# ********
# Packages
# ********
 &PACKAGES
 usePtracers  = .TRUE.,
 useGMRedi    = .TRUE.,
 useKPP       = .FALSE.,
 useGrdchk    = .TRUE.,
 useECCO      = .TRUE.,
 &
