# Packages
 &PACKAGES
 useGMRedi=.TRUE.,
 usePTRACERS=.TRUE.,
 useGCHEM=.TRUE.,
 useDiagnostics=.TRUE.,
 &
