# Packages
 &PACKAGES
 useMNC=.TRUE.,
 useShelfIce=.true.,
 useGrdchk=.TRUE.,
 &
