#
#
# ******************
# cost function
# ******************
 &COST_NML
#revert to default 1 month
# lastinterval=7776000.,
 mult_test=1.,
 &
