# Packages
 &PACKAGES
 useSTIC=.TRUE.,
#useDiagnostics=.TRUE.,
#useMNC=.TRUE.,
 &
