 &PTRACERS_PARM01
 PTRACERS_numInUse=1,
 PTRACERS_Iter0= 0,
#
# The following option is now obsolete!!!
#   PTRACERS_write_mnc=.TRUE.,
#
# tracer 1 
 PTRACERS_names(1)='TR1',
 PTRACERS_long_names(1)='Fram St tracer',
 PTRACERS_units(1)=' ',
 PTRACERS_advScheme(1)=7,
 PTRACERS_useGMRedi(1)=.TRUE. ,
 PTRACERS_useKPP(1)=.TRUE. ,
 PTRACERS_EvPrRn(1)=0. ,
 PTRACERS_ref(1,1)=0.000 ,
 PTRACERS_initialFile(1)=' ',
 &

