# Packages
 &PACKAGES
 useGMRedi=.TRUE.,
 useBulkforce=.TRUE.,
 useThSIce=.TRUE.,
 &
