# Packages
 &PACKAGES
  useEXF    = .TRUE.,
  useCAL    = .TRUE.,
  useSEAICE = .FALSE.,
  useThSIce = .TRUE.,
# useDiagnostics=.TRUE.,
  useGrdchk = .TRUE.,
 &
