# Packages
 &PACKAGES
  useEXF         = .TRUE.,
  useGrdchk      = .TRUE.,
  useGMRedi      = .TRUE.,
##  useDiagnostics = .TRUE.,
 &
  
