# Packages
 &PACKAGES
 useGMRedi      = .TRUE.,
 usePTRACERS    = .TRUE.,
 useGCHEM       = .TRUE.,
 useECCO        = .TRUE.,
# useGrdchk      = .TRUE.,
 usePROFILEs    = .TRUE.,
 useOBSFIT     = .TRUE.,
 useDIAGNOSTICS = .TRUE.,
 &
