# Packages
 &PACKAGES
 useGMRedi      = .TRUE.,
 usePTRACERS    = .TRUE.,
 useGCHEM       = .TRUE.,
 useECCO        = .TRUE.,
 usePROFILES    = .TRUE.,
 useOBSFIT      = .TRUE.,
 useDIAGNOSTICS = .TRUE.,
 &
