# Packages
 &PACKAGES
 useSHAP_FILT=.TRUE.,
 useZONAL_FILT=.TRUE.,
 &
